data_image0
_chemical_formula_structural       Ag9C5O2H8C5O2H8C5O2H8C5O2H8C5O2H8PbI3PbI3PbI3C3NC5H6C3NC5H6C3NC5H6C6O2SH8C6O2SH8C8H7SO3C8H8C8H7SO3C8H8C8H8C6O2SH8C8H7SO3C8H8C8H7SO3C8H8C8H8C6O2SH8C8H7SO3C8H8C8H7SO3C8H8C8H8C6O2SH8C8H7SO3C8H8C8H7SO3C8H8C8H8C6O2SH8C8H7SO3C8H8C8H7SO3C8H8C8H8In4
_chemical_formula_sum              "Ag9 C285 O52 H296 Pb3 I9 N3 S16 In4"
_cell_length_a       60.624058343202336
_cell_length_b       40.93014109430848
_cell_length_c       49.8614570585337
_cell_angle_alpha    58.526648341141154
_cell_angle_beta     62.1541457067882
_cell_angle_gamma    74.78672511366227

_space_group_name_H-M_alt    "P 1"
_space_group_IT_number       1

loop_
  _space_group_symop_operation_xyz
  'x, y, z'

loop_
  _atom_site_type_symbol
  _atom_site_label
  _atom_site_symmetry_multiplicity
  _atom_site_fract_x
  _atom_site_fract_y
  _atom_site_fract_z
  _atom_site_occupancy
  Ag  Ag1       1.0  0.16081200652346336  0.38367583767650826  -0.4430217113554416  1.0000
  Ag  Ag2       1.0  0.18370940578077008  0.3597091585386027  -0.3957833960879427  1.0000
  Ag  Ag3       1.0  0.20660680503807682  0.3357424794006971  -0.34854508082044394  1.0000
  Ag  Ag4       1.0  0.14444016281740263  0.41802193656246833  -0.39847352014035253  1.0000
  Ag  Ag5       1.0  0.16733756207470937  0.39405525742456277  -0.3512352048728537  1.0000
  Ag  Ag6       1.0  0.19023496133201612  0.3700885782866572  -0.30399688960535487  1.0000
  Ag  Ag7       1.0  0.12806831911134187  0.4523680354484285  -0.35392532892526346  1.0000
  Ag  Ag8       1.0  0.15096571836864867  0.42840135631052295  -0.3066870136577647  1.0000
  Ag  Ag9       1.0  0.1738631176259554  0.4044346771726174  -0.25944869839026585  1.0000
  C   C1        1.0  0.0017329937059297293  0.028716093695185244  -0.0669308116786977  1.0000
  C   C2        1.0  0.027960881983884276  0.026140136278738228  -0.07027192601982937  1.0000
  C   C3        1.0  0.03954486214344283  0.0622827936327799  -0.07701387677152031  1.0000
  C   C4        1.0  0.02315242813984986  0.10117313889769841  -0.08019197222600413  1.0000
  C   C5        1.0  0.9969245398618953  0.1037490963141454  -0.07685085788487245  1.0000
  O   O1        1.0  0.04349466351532824  0.0006485414814911953  -0.06886526738787677  1.0000
  O   O2        1.0  0.06227569865100345  0.0600502972051925  -0.0799095092005011  1.0000
  H   H1        1.0  0.986854913211306  0.016862917677381982  -0.06315470625148749  1.0000
  H   H2        1.0  0.018328379144851466  0.013771768777645573  -0.0671640434608455  1.0000
  H   H3        1.0  0.05023896888995342  0.08519843101357993  -0.0817616497446046  1.0000
  H   H4        1.0  0.030349483115966514  0.12443223726735804  -0.08449426328693753  1.0000
  H   H5        1.0  0.9796422324452544  0.12941242160582225  -0.07803477556074961  1.0000
  H   H6        1.0  0.01111569837879984  0.12632127270608584  -0.08204411277010763  1.0000
  H   H7        1.0  0.07537403231953124  0.04544943327651244  -0.07969725907049802  1.0000
  H   H8        1.0  0.07365672737523324  0.07224693421185537  -0.08324013271556044  1.0000
  C   C6        1.0  0.05069171849144489  0.02390763985115082  -0.07316755844881016  1.0000
  C   C7        1.0  0.07691960676939943  0.021331682434703816  -0.07650867278994185  1.0000
  C   C8        1.0  0.08850358692895799  0.0574743397887455  -0.08325062354163279  1.0000
  C   C9        1.0  0.07211115292536503  0.096364685053664  -0.08642871899611661  1.0000
  C   C10       1.0  0.04588326464741047  0.098940642470111  -0.08308760465498492  1.0000
  O   O3        1.0  0.09245338830084342  -0.004159912362543216  -0.07510201415798924  1.0000
  O   O4        1.0  0.11123442343651861  0.05524184336115808  -0.08614625597061357  1.0000
  H   H9        1.0  0.03581363799682116  0.012054463833347562  -0.06939145302159995  1.0000
  H   H10       1.0  0.06728710393036663  0.008963314933611155  -0.07340079023095797  1.0000
  H   H11       1.0  0.09919769367546859  0.08038997716954552  -0.08799839651471707  1.0000
  H   H12       1.0  0.07930820790148167  0.11962378342332361  -0.09073101005704999  1.0000
  H   H13       1.0  0.028600957230769542  0.12460396776178784  -0.08427152233086209  1.0000
  H   H14       1.0  0.06007442316431499  0.12151281886205142  -0.0882808595402201  1.0000
  H   H15       1.0  0.12433275710504639  0.04064097943247802  -0.08593400584061048  1.0000
  H   H16       1.0  0.12261545216074839  0.06743848036782094  -0.08947687948567289  1.0000
  C   C11       1.0  0.09965044327696007  0.01909918600711641  -0.07940430521892264  1.0000
  C   C12       1.0  0.12587833155491462  0.0165232285906694  -0.08274541956005432  1.0000
  C   C13       1.0  0.13746231171447318  0.05266588594471108  -0.08948737031174525  1.0000
  C   C14       1.0  0.12106987771088018  0.09155623120962958  -0.09266546576622907  1.0000
  C   C15       1.0  0.09484198943292563  0.09413218862607658  -0.0893243514250974  1.0000
  O   O5        1.0  0.14141211308635857  -0.008968366206577639  -0.0813387609281017  1.0000
  O   O6        1.0  0.1601931482220338  0.050433389517123665  -0.09238300274072604  1.0000
  H   H17       1.0  0.08477236278233632  0.007246009989313155  -0.07562819979171242  1.0000
  H   H18       1.0  0.11624582871588181  0.004154861089576739  -0.07963753700107043  1.0000
  H   H19       1.0  0.14815641846098376  0.0755815233255111  -0.09423514328482954  1.0000
  H   H20       1.0  0.12826693268699685  0.11481532957928921  -0.09696775682716247  1.0000
  H   H21       1.0  0.0775596820162847  0.11979551391775342  -0.09050826910097455  1.0000
  H   H22       1.0  0.10903314794983017  0.11670436501801702  -0.09451760631033257  1.0000
  H   H23       1.0  0.17329148189056157  0.03583252558844361  -0.09217075261072295  1.0000
  H   H24       1.0  0.17157417694626356  0.06263002652378653  -0.09571362625578536  1.0000
  C   C16       1.0  0.14860916806247518  0.01429073216308199  -0.0856410519890351  1.0000
  C   C17       1.0  0.17483705634042976  0.011714774746634982  -0.08898216633016677  1.0000
  C   C18       1.0  0.1864210364999883  0.04785743210067666  -0.09572411708185771  1.0000
  C   C19       1.0  0.17002860249639534  0.08674777736559515  -0.09890221253634152  1.0000
  C   C20       1.0  0.14380071421844082  0.08932373478204217  -0.09556109819520985  1.0000
  O   O7        1.0  0.19037083787187373  -0.013776820050612055  -0.08757550769821416  1.0000
  O   O8        1.0  0.20915187300754892  0.045624935673089256  -0.0986197495108385  1.0000
  H   H25       1.0  0.13373108756785146  0.0024375561452787383  -0.08186494656182489  1.0000
  H   H26       1.0  0.16520455350139693  -0.0006535927544576718  -0.0858742837711829  1.0000
  H   H27       1.0  0.1971151432464989  0.07077306948147669  -0.100471890054942  1.0000
  H   H28       1.0  0.177225657472512  0.11000687573525478  -0.10320450359727493  1.0000
  H   H29       1.0  0.12651840680179982  0.114987060073719  -0.09674501587108701  1.0000
  H   H30       1.0  0.15799187273534532  0.1118959111739826  -0.10075435308044504  1.0000
  H   H31       1.0  0.22225020667607673  0.031024071744409194  -0.09840749938083541  1.0000
  H   H32       1.0  0.2205329017317787  0.05782157267975212  -0.10195037302589782  1.0000
  C   C21       1.0  0.1975678928479904  0.00948227831904757  -0.09187779875914756  1.0000
  C   C22       1.0  0.22379578112594492  0.006906320902600561  -0.09521891310027923  1.0000
  C   C23       1.0  0.2353797612855035  0.043048978256642244  -0.10196086385197019  1.0000
  C   C24       1.0  0.21898732728191048  0.08193932352156075  -0.10513895930645399  1.0000
  C   C25       1.0  0.19275943900395595  0.08451528093800774  -0.1017978449653223  1.0000
  O   O9        1.0  0.23932956265738892  -0.018585273894646467  -0.09381225446832664  1.0000
  O   O10       1.0  0.2581105977930641  0.04081648182905484  -0.10485649628095098  1.0000
  H   H33       1.0  0.18268981235336665  -0.0023708976987556842  -0.08810169333193735  1.0000
  H   H34       1.0  0.21416327828691215  -0.005462046598492088  -0.09211103054129538  1.0000
  H   H35       1.0  0.24607386803201406  0.06596461563744226  -0.10670863682505445  1.0000
  H   H36       1.0  0.22618438225802714  0.10519842189122038  -0.1094412503673874  1.0000
  H   H37       1.0  0.175477131587315  0.11017860622968459  -0.1029817626411995  1.0000
  H   H38       1.0  0.20695059752086048  0.10708745732994818  -0.10699109985055749  1.0000
  H   H39       1.0  0.2712089314615919  0.02621561790037478  -0.10464424615094789  1.0000
  H   H40       1.0  0.2694916265172939  0.05301311883571769  -0.1081871197960103  1.0000
  Pb  Pb1       1.0  0.9401379170159784  0.14692245386285763  0.1553277601809427  1.0000
  I   I1        1.0  0.9346425411942247  0.23267445685595495  0.143990564516743  1.0000
  I   I2        1.0  0.945633292837732  0.06117045086976028  0.1666649558451424  1.0000
  I   I3        1.0  0.9960907453422814  0.141427078041104  0.14820004958652844  1.0000
  Pb  Pb2       1.0  0.052043573668584454  0.13593170221935041  0.1410723389921142  1.0000
  I   I4        1.0  0.046548197846830834  0.22168370521244768  0.1297351433279145  1.0000
  I   I5        1.0  0.057538949490338075  0.050179699226253045  0.1524095346563139  1.0000
  I   I6        1.0  0.10799640199488751  0.13043632639759675  0.13394462839769994  1.0000
  Pb  Pb3       1.0  0.16394923032119055  0.12494095057584313  0.12681691780328572  1.0000
  I   I7        1.0  0.1584538544994369  0.2106929535689405  0.11547972213908599  1.0000
  I   I8        1.0  0.16944460614294418  0.0391889475827458  0.13815411346748543  1.0000
  I   I9        1.0  0.21990205864749357  0.11944557475408953  0.11968920720887148  1.0000
  C   C26       1.0  0.9246199492768628  0.11633407848215592  0.04671303338011559  1.0000
  C   C27       1.0  0.9513723953203763  0.11370660191737997  0.043305096752161286  1.0000
  C   C28       1.0  0.97812484136389  0.111079125352604  0.03989716012420697  1.0000
  N   N1        1.0  0.9717675563948818  0.05889819652178669  0.08040215532710657  1.0000
  C   C29       1.0  0.9669404697922017  0.13422195202589532  0.07044366894188289  1.0000
  C   C30       1.0  0.9633621746004333  0.06632799453277248  0.1068875849037021  1.0000
  C   C31       1.0  0.9777537157605394  0.08921889559844838  0.048925766274754985  1.0000
  C   C32       1.0  0.9756889269550761  0.12707518235450105  0.04266954154698925  1.0000
  C   C33       1.0  0.9606417859130771  0.10314149706800234  0.10327178353467827  1.0000
  H   H41       1.0  0.9650739756981728  0.16334745905749523  0.06659301169177931  1.0000
  H   H42       1.0  0.9586074678721672  0.04142667228508165  0.13217852982121292  1.0000
  H   H43       1.0  0.9845251258117023  0.08265078700272677  0.027795366679334042  1.0000
  H   H44       1.0  0.9808427426412007  0.15033802841778462  0.016576398101614653  1.0000
  H   H45       1.0  0.9537356803463294  0.1072220706291165  0.12574987791309325  1.0000
  H   H46       1.0  0.9837844793029972  0.12008123365291427  0.017103012917694747  1.0000
  C   C34       1.0  0.036525605929468796  0.10534332683864867  0.0324576121912871  1.0000
  C   C35       1.0  0.06327805197298246  0.1027158502738727  0.02904967556333279  1.0000
  C   C36       1.0  0.09003049801649611  0.10008837370909676  0.025641738935378477  1.0000
  N   N2        1.0  0.08367321304748787  0.047907444878279436  0.06614673413827808  1.0000
  C   C37       1.0  0.07884612644480782  0.12323120038238808  0.0561882477530544  1.0000
  C   C38       1.0  0.07526783125303943  0.055337242889265253  0.0926321637148736  1.0000
  C   C39       1.0  0.08965937241314552  0.07822814395494114  0.034670345085926486  1.0000
  C   C40       1.0  0.0875945836076823  0.11608443071099382  0.028414120358160752  1.0000
  C   C41       1.0  0.07254744256568323  0.09215074542449511  0.08901636234584977  1.0000
  H   H47       1.0  0.07697963235077887  0.15235670741398802  0.052337590502950816  1.0000
  H   H48       1.0  0.07051312452477339  0.030435920641574406  0.11792310863238442  1.0000
  H   H49       1.0  0.09643078246430836  0.07166003535921953  0.013539945490505545  1.0000
  H   H50       1.0  0.09274839929380682  0.13934727677427738  0.002320976912786153  1.0000
  H   H51       1.0  0.06564133699893547  0.09623131898560927  0.11149445672426474  1.0000
  H   H52       1.0  0.09569013595560327  0.10909048200940703  0.002847591728866249  1.0000
  C   C42       1.0  0.1484312625820749  0.09435257519514142  0.018202191002458606  1.0000
  C   C43       1.0  0.17518370862558855  0.09172509863036547  0.014794254374504299  1.0000
  C   C44       1.0  0.2019361546691022  0.08909762206558952  0.011386317746549985  1.0000
  N   N3        1.0  0.19557886970009397  0.0369166932347722  0.05189131294944959  1.0000
  C   C45       1.0  0.1907517830974139  0.11224044873888087  0.0419328265642259  1.0000
  C   C46       1.0  0.18717348790564556  0.04434649124575801  0.07837674252604511  1.0000
  C   C47       1.0  0.2015650290657516  0.06723739231143391  0.020414923897097998  1.0000
  C   C48       1.0  0.1995002402602884  0.1050936790674866  0.01415869916933226  1.0000
  C   C49       1.0  0.18445309921828934  0.08115999378098786  0.07476094115702127  1.0000
  H   H53       1.0  0.18888528900338497  0.14136595577048075  0.03808216931412233  1.0000
  H   H54       1.0  0.18241878117737947  0.01944516899806716  0.10366768744355595  1.0000
  H   H55       1.0  0.20833643911691446  0.060669283715712286  -0.0007154756983229468  1.0000
  H   H56       1.0  0.20465405594641292  0.12835652513077017  -0.011934444276042339  1.0000
  H   H57       1.0  0.17754699365154156  0.08524056734210203  0.09723903553543624  1.0000
  H   H58       1.0  0.20759579260820937  0.0980997303658998  -0.011407829459962243  1.0000
  C   C50       1.0  0.7055141555528088  0.03165380419541164  0.319881984042014  1.0000
  C   C51       1.0  0.7275892910235493  0.0667660785828745  0.3118035875538704  1.0000
  C   C52       1.0  0.754472880338324  0.026845350351377237  0.3136452372719015  1.0000
  C   C53       1.0  0.7765480158090644  0.0619576247388401  0.3055668407837579  1.0000
  C   C54       1.0  0.8034316051238392  0.02203689650734283  0.30740849050178903  1.0000
  C   C55       1.0  0.7323977448675836  -0.008266924036085655  0.32172363376004515  1.0000
  O   O11       1.0  0.7813564696530988  -0.013075377880120061  0.31548688698993266  1.0000
  O   O12       1.0  0.7496644264942895  0.10187835297033739  0.30372519106572676  1.0000
  S   S1        1.0  0.7986231512798048  0.097069899126303  0.2974884442956143  1.0000
  H   H59       1.0  0.7089487654414048  -0.021941197675274197  0.3269677313321388  1.0000
  H   H60       1.0  0.7258719860792512  0.09356357951821746  0.30826071390880794  1.0000
  H   H61       1.0  0.7568771072603413  -0.010671150958102858  0.3186052603749889  1.0000
  H   H62       1.0  0.7748307108647663  0.08875512567418303  0.3020239671386955  1.0000
  H   H63       1.0  0.8058358320458563  -0.015479604802137286  0.31236851360487644  1.0000
  H   H64       1.0  0.7341150498118816  -0.035064424971428566  0.32526650740510754  1.0000
  H   H65       1.0  0.7830737745973968  -0.039872878815463  0.3190297606349951  1.0000
  H   H66       1.0  0.8209168639758089  0.020319591563044814  0.3051810809410346  1.0000
  C   C56       1.0  0.7055141555528088  0.03165380419541164  0.319881984042014  1.0000
  C   C57       1.0  0.7275892910235493  0.0667660785828745  0.3118035875538704  1.0000
  C   C58       1.0  0.754472880338324  0.026845350351377237  0.3136452372719015  1.0000
  C   C59       1.0  0.7765480158090644  0.0619576247388401  0.3055668407837579  1.0000
  C   C60       1.0  0.8034316051238392  0.02203689650734283  0.30740849050178903  1.0000
  C   C61       1.0  0.7323977448675836  -0.008266924036085655  0.32172363376004515  1.0000
  O   O13       1.0  0.7813564696530988  -0.013075377880120061  0.31548688698993266  1.0000
  O   O14       1.0  0.7496644264942895  0.10187835297033739  0.30372519106572676  1.0000
  S   S2        1.0  0.7986231512798048  0.097069899126303  0.2974884442956143  1.0000
  H   H67       1.0  0.7089487654414048  -0.021941197675274197  0.3269677313321388  1.0000
  H   H68       1.0  0.7258719860792512  0.09356357951821746  0.30826071390880794  1.0000
  H   H69       1.0  0.7568771072603413  -0.010671150958102858  0.3186052603749889  1.0000
  H   H70       1.0  0.7748307108647663  0.08875512567418303  0.3020239671386955  1.0000
  H   H71       1.0  0.8058358320458563  -0.015479604802137286  0.31236851360487644  1.0000
  H   H72       1.0  0.7341150498118816  -0.035064424971428566  0.32526650740510754  1.0000
  H   H73       1.0  0.7830737745973968  -0.039872878815463  0.3190297606349951  1.0000
  H   H74       1.0  0.8209168639758089  0.020319591563044814  0.3051810809410346  1.0000
  C   C62       1.0  0.7141006802742988  -0.10233370048130297  0.3375963522673261  1.0000
  C   C63       1.0  0.7385800426670565  -0.10473792740332018  0.3344779788822698  1.0000
  C   C64       1.0  0.7484154969414181  -0.0684235395548487  0.32795876908665433  1.0000
  C   C65       1.0  0.7728948593341756  -0.07082776647686591  0.3248403957015981  1.0000
  C   C66       1.0  0.7875387674525717  -0.10954638124735458  0.32824123211215733  1.0000
  C   C67       1.0  0.7777033131782101  -0.1458607690958261  0.3347604419077729  1.0000
  C   C68       1.0  0.7532239507854525  -0.14345654217380885  0.33787881529282904  1.0000
  C   C69       1.0  0.7297761614284453  -0.11874120698158062  0.3699355412035111  1.0000
  H   H75       1.0  0.7158179852185969  -0.1291312014166459  0.3411392259123885  1.0000
  H   H76       1.0  0.7594530646767882  -0.05086740236111723  0.3239195708425825  1.0000
  H   H77       1.0  0.7961721082659245  -0.05447374274414306  0.3192420107649982  1.0000
  H   H78       1.0  0.8033847890319762  -0.1670232466725833  0.3341220800742603  1.0000
  H   H79       1.0  0.7666657454428398  -0.16341690628955752  0.33879964015184466  1.0000
  H   H80       1.0  0.7253742208091397  -0.12574284677071085  0.3876643223641317  1.0000
  H   H81       1.0  0.7123833753300008  -0.07553619954596004  0.33405347862226364  1.0000
  S   S3        1.0  0.7963426486911828  -0.09554310166909413  0.2927836697909161  1.0000
  O   O15       1.0  0.8138279075431525  -0.09726040661339212  0.2905562602301616  1.0000
  O   O16       1.0  0.7858827143209  -0.06788694826160221  0.2903545009262309  1.0000
  O   O17       1.0  0.789317324209496  -0.12148195013228806  0.29744024821635573  1.0000
  C   C70       1.0  0.7875387674525717  -0.10954638124735458  0.32824123211215733  1.0000
  C   C71       1.0  0.8120181298453292  -0.11195060816937177  0.3251228587271011  1.0000
  C   C72       1.0  0.8218535841196908  -0.07563622032090031  0.31860364893148563  1.0000
  C   C73       1.0  0.8463329465124484  -0.07804044724291752  0.3154852755464294  1.0000
  C   C74       1.0  0.8609768546308444  -0.1167590620134062  0.3188861119569886  1.0000
  C   C75       1.0  0.8511414003564828  -0.1530734498618777  0.32540532175260417  1.0000
  C   C76       1.0  0.8266620379637252  -0.1506692229398605  0.3285236951376604  1.0000
  C   C77       1.0  0.803214248606718  -0.12595388774763222  0.36058042104834237  1.0000
  H   H82       1.0  0.7892560723968696  -0.1363438821826975  0.3317841057572198  1.0000
  H   H83       1.0  0.832891151855061  -0.05808008312716885  0.3145644506874138  1.0000
  H   H84       1.0  0.8696101954441974  -0.06168642351019469  0.3098868906098295  1.0000
  H   H85       1.0  0.885456217023602  -0.11916328893542344  0.31576773857193247  1.0000
  H   H86       1.0  0.876822876210249  -0.17423592743863495  0.3247669599190916  1.0000
  H   H87       1.0  0.8401038326211125  -0.17062958705560913  0.32944451999667596  1.0000
  H   H88       1.0  0.7988123079874124  -0.13295552753676246  0.378309202208963  1.0000
  H   H89       1.0  0.7858214625082736  -0.08274888031201166  0.32469835846709494  1.0000
  C   C78       1.0  0.8609768546308444  -0.1167590620134062  0.3188861119569886  1.0000
  C   C79       1.0  0.885456217023602  -0.11916328893542344  0.31576773857193247  1.0000
  C   C80       1.0  0.8952916712979635  -0.08284890108695193  0.3092485287763169  1.0000
  C   C81       1.0  0.9197710336907211  -0.08525312800896911  0.30613015539126065  1.0000
  C   C82       1.0  0.9344149418091171  -0.12397174277945786  0.30953099180182  1.0000
  C   C83       1.0  0.9245794875347555  -0.16028613062792932  0.3160502015974354  1.0000
  C   C84       1.0  0.900100125141998  -0.1578819037059121  0.3191685749824917  1.0000
  C   C85       1.0  0.8766523357849908  -0.1331665685136839  0.3512253008931737  1.0000
  H   H90       1.0  0.8626941595751424  -0.14355656294874913  0.3224289856020511  1.0000
  H   H91       1.0  0.9063292390333337  -0.0652927638932205  0.30520933053224514  1.0000
  H   H92       1.0  0.9430482826224701  -0.06889910427624632  0.3005317704546608  1.0000
  H   H93       1.0  0.9502609633885217  -0.18144860820468658  0.3154118397639229  1.0000
  H   H94       1.0  0.9135419197993854  -0.17784226782166077  0.32008939984150725  1.0000
  H   H95       1.0  0.8722503951656853  -0.1401682083028141  0.3689540820537943  1.0000
  H   H96       1.0  0.8592595496865464  -0.0899615610780633  0.31534323831192623  1.0000
  S   S4        1.0  0.9432188230477283  -0.1099684632011974  0.27407342948057867  1.0000
  O   O18       1.0  0.960704081899698  -0.11168576814549541  0.27184601991982427  1.0000
  O   O19       1.0  0.9327588886774454  -0.08231230979370548  0.27164426061589353  1.0000
  O   O20       1.0  0.9361934985660415  -0.13590731166439132  0.2787300079060183  1.0000
  C   C86       1.0  0.9344149418091171  -0.12397174277945786  0.30953099180182  1.0000
  C   C87       1.0  0.9588943042018747  -0.12637596970147505  0.3064126184167637  1.0000
  C   C88       1.0  0.9687297584762363  -0.09006158185300356  0.2998934086211482  1.0000
  C   C89       1.0  0.9932091208689939  -0.09246580877502078  0.296775035236092  1.0000
  C   C90       1.0  0.007853028987389874  -0.13118442354550947  0.30017587164665127  1.0000
  C   C91       1.0  0.9980175747130283  -0.16749881139398093  0.30669508144226676  1.0000
  C   C92       1.0  0.9735382123202707  -0.1650945844719637  0.309813454827323  1.0000
  C   C93       1.0  0.9500904229632636  -0.1403792492797355  0.34187018073800496  1.0000
  H   H97       1.0  0.9361322467534151  -0.15076924371480077  0.31307386544688237  1.0000
  H   H98       1.0  0.9797673262116066  -0.07250544465927214  0.29585421037707643  1.0000
  H   H99       1.0  0.016486369800742855  -0.07611178504229796  0.2911766502994921  1.0000
  H   H100      1.0  0.03233239138014751  -0.13358865046752666  0.297057498261595  1.0000
  H   H101      1.0  0.02369905056679448  -0.18866128897073822  0.3060567196087542  1.0000
  H   H102      1.0  0.9869800069776581  -0.18505494858771238  0.31073427968633854  1.0000
  H   H103      1.0  0.945688482343958  -0.14738088906886568  0.35959896189862556  1.0000
  H   H104      1.0  0.9326976368648191  -0.09717424184411495  0.3059881181567576  1.0000
  C   C94       1.0  0.007853028987389874  -0.13118442354550947  0.30017587164665127  1.0000
  C   C95       1.0  0.03233239138014745  -0.13358865046752666  0.297057498261595  1.0000
  C   C96       1.0  0.042167845654509074  -0.0972742626190552  0.2905382884659795  1.0000
  C   C97       1.0  0.06664720804726663  -0.0996784895410724  0.2874199150809233  1.0000
  C   C98       1.0  0.0812911161656626  -0.13839710431156108  0.29082075149148257  1.0000
  C   C99       1.0  0.07145566189130104  -0.17471149216003257  0.29733996128709805  1.0000
  C   C100      1.0  0.04697629949854348  -0.17230726523801537  0.30045833467215427  1.0000
  C   C101      1.0  0.023528510141536292  -0.1475919300457871  0.33251506058283625  1.0000
  H   H105      1.0  0.00957033393168788  -0.15798192448085238  0.30371874529171367  1.0000
  H   H106      1.0  0.05320541338987924  -0.07971812542532374  0.2864990902219077  1.0000
  H   H107      1.0  0.08992445697901565  -0.08332446580834955  0.2818215301443234  1.0000
  H   H108      1.0  0.10577047855842017  -0.1408013312335783  0.28770237810642635  1.0000
  H   H109      1.0  0.09713713774506726  -0.19587396973678983  0.29670159945358554  1.0000
  H   H110      1.0  0.060418094155930885  -0.192267629353764  0.30137915953116984  1.0000
  H   H111      1.0  0.01912656952223071  -0.15459356983491732  0.35024384174345685  1.0000
  H   H112      1.0  0.006135724043091878  -0.10438692261016652  0.2966329980015888  1.0000
  C   C102      1.0  0.8279109675165968  0.01963266958532558  0.30429011711673287  1.0000
  C   C103      1.0  0.8499861029873371  0.0547449439727885  0.2962117206285892  1.0000
  C   C104      1.0  0.876869692302112  0.014824215741291178  0.2980533703466204  1.0000
  C   C105      1.0  0.8989448277728522  0.04993649012875407  0.28997497385847676  1.0000
  C   C106      1.0  0.9258284170876271  0.01001576189725675  0.2918166235765079  1.0000
  C   C107      1.0  0.8547945568313715  -0.020288058646171694  0.30613176683476395  1.0000
  O   O21       1.0  0.9037532816168867  -0.02509651249020613  0.2998950200646515  1.0000
  O   O22       1.0  0.8720612384580775  0.08985721836025132  0.2881333241404456  1.0000
  S   S5        1.0  0.9210199632435927  0.08504876451621696  0.28189657737033313  1.0000
  H   H113      1.0  0.8313455774051928  -0.03396233228536023  0.3113758644068576  1.0000
  H   H114      1.0  0.8482687980430391  0.08154244490813141  0.2926688469835268  1.0000
  H   H115      1.0  0.8792739192241291  -0.022692285568188916  0.30301339344970774  1.0000
  H   H116      1.0  0.8972275228285542  0.07673399106409699  0.2864321002134143  1.0000
  H   H117      1.0  0.9282326440096443  -0.02750073941222332  0.29677664667959525  1.0000
  H   H118      1.0  0.8565118617756695  -0.04708555958151462  0.3096746404798264  1.0000
  H   H119      1.0  0.9054705865611847  -0.05189401342554904  0.3034378937097139  1.0000
  H   H120      1.0  0.9433136759395968  0.008298456952958753  0.28958921401575344  1.0000
  C   C108      1.0  0.7875387674525717  -0.10954638124735458  0.32824123211215733  1.0000
  C   C109      1.0  0.8120181298453292  -0.11195060816937177  0.3251228587271011  1.0000
  C   C110      1.0  0.8218535841196908  -0.07563622032090031  0.31860364893148563  1.0000
  C   C111      1.0  0.8463329465124484  -0.07804044724291752  0.3154852755464294  1.0000
  C   C112      1.0  0.8609768546308444  -0.1167590620134062  0.3188861119569886  1.0000
  C   C113      1.0  0.8511414003564828  -0.1530734498618777  0.32540532175260417  1.0000
  C   C114      1.0  0.8266620379637252  -0.1506692229398605  0.3285236951376604  1.0000
  C   C115      1.0  0.803214248606718  -0.12595388774763222  0.36058042104834237  1.0000
  H   H121      1.0  0.7892560723968696  -0.1363438821826975  0.3317841057572198  1.0000
  H   H122      1.0  0.832891151855061  -0.05808008312716885  0.3145644506874138  1.0000
  H   H123      1.0  0.8696101954441974  -0.06168642351019469  0.3098868906098295  1.0000
  H   H124      1.0  0.876822876210249  -0.17423592743863495  0.3247669599190916  1.0000
  H   H125      1.0  0.8401038326211125  -0.17062958705560913  0.32944451999667596  1.0000
  H   H126      1.0  0.7988123079874124  -0.13295552753676246  0.378309202208963  1.0000
  H   H127      1.0  0.7858214625082736  -0.08274888031201166  0.32469835846709494  1.0000
  S   S6        1.0  0.8697807358694555  -0.10275578243514576  0.2834285496357474  1.0000
  O   O23       1.0  0.8872659947214252  -0.10447308737944376  0.2812011400749929  1.0000
  O   O24       1.0  0.8593208014991727  -0.07509962902765382  0.2809993807710622  1.0000
  O   O25       1.0  0.8627554113877687  -0.12869463089833968  0.288085128061187  1.0000
  C   C116      1.0  0.8609768546308444  -0.1167590620134062  0.3188861119569886  1.0000
  C   C117      1.0  0.885456217023602  -0.11916328893542344  0.31576773857193247  1.0000
  C   C118      1.0  0.8952916712979635  -0.08284890108695193  0.3092485287763169  1.0000
  C   C119      1.0  0.9197710336907211  -0.08525312800896911  0.30613015539126065  1.0000
  C   C120      1.0  0.9344149418091171  -0.12397174277945786  0.30953099180182  1.0000
  C   C121      1.0  0.9245794875347555  -0.16028613062792932  0.3160502015974354  1.0000
  C   C122      1.0  0.900100125141998  -0.1578819037059121  0.3191685749824917  1.0000
  C   C123      1.0  0.8766523357849908  -0.1331665685136839  0.3512253008931737  1.0000
  H   H128      1.0  0.8626941595751424  -0.14355656294874913  0.3224289856020511  1.0000
  H   H129      1.0  0.9063292390333337  -0.0652927638932205  0.30520933053224514  1.0000
  H   H130      1.0  0.9430482826224701  -0.06889910427624632  0.3005317704546608  1.0000
  H   H131      1.0  0.9588943042018747  -0.12637596970147505  0.3064126184167637  1.0000
  H   H132      1.0  0.9502609633885217  -0.18144860820468658  0.3154118397639229  1.0000
  H   H133      1.0  0.9135419197993854  -0.17784226782166077  0.32008939984150725  1.0000
  H   H134      1.0  0.8722503951656853  -0.1401682083028141  0.3689540820537943  1.0000
  H   H135      1.0  0.8592595496865464  -0.0899615610780633  0.31534323831192623  1.0000
  C   C124      1.0  0.9344149418091171  -0.12397174277945786  0.30953099180182  1.0000
  C   C125      1.0  0.9588943042018747  -0.12637596970147505  0.3064126184167637  1.0000
  C   C126      1.0  0.9687297584762363  -0.09006158185300356  0.2998934086211482  1.0000
  C   C127      1.0  0.9932091208689939  -0.09246580877502078  0.296775035236092  1.0000
  C   C128      1.0  0.007853028987389874  -0.13118442354550947  0.30017587164665127  1.0000
  C   C129      1.0  0.9980175747130283  -0.16749881139398093  0.30669508144226676  1.0000
  C   C130      1.0  0.9735382123202707  -0.1650945844719637  0.309813454827323  1.0000
  C   C131      1.0  0.9500904229632635  -0.1403792492797355  0.34187018073800496  1.0000
  H   H136      1.0  0.9361322467534151  -0.15076924371480077  0.31307386544688237  1.0000
  H   H137      1.0  0.9797673262116064  -0.07250544465927213  0.29585421037707643  1.0000
  H   H138      1.0  0.016486369800742855  -0.07611178504229796  0.2911766502994921  1.0000
  H   H139      1.0  0.02369905056679448  -0.18866128897073822  0.3060567196087542  1.0000
  H   H140      1.0  0.9869800069776581  -0.18505494858771238  0.31073427968633854  1.0000
  H   H141      1.0  0.945688482343958  -0.14738088906886568  0.35959896189862556  1.0000
  H   H142      1.0  0.9326976368648191  -0.09717424184411495  0.3059881181567576  1.0000
  S   S7        1.0  0.01665691022600103  -0.11718114396724902  0.26471830932541  1.0000
  O   O26       1.0  0.03414216907797074  -0.11889844891154704  0.26249089976465556  1.0000
  O   O27       1.0  0.006196975855718186  -0.0895249905597571  0.2622891404607248  1.0000
  O   O28       1.0  0.009631585744314185  -0.14311999243044293  0.26937488775084967  1.0000
  C   C132      1.0  0.007853028987389874  -0.13118442354550947  0.30017587164665127  1.0000
  C   C133      1.0  0.03233239138014751  -0.13358865046752666  0.297057498261595  1.0000
  C   C134      1.0  0.042167845654509074  -0.0972742626190552  0.2905382884659795  1.0000
  C   C135      1.0  0.06664720804726663  -0.0996784895410724  0.2874199150809233  1.0000
  C   C136      1.0  0.0812911161656626  -0.13839710431156108  0.29082075149148257  1.0000
  C   C137      1.0  0.07145566189130104  -0.17471149216003257  0.29733996128709805  1.0000
  C   C138      1.0  0.04697629949854348  -0.17230726523801537  0.30045833467215427  1.0000
  C   C139      1.0  0.02352851014153635  -0.1475919300457871  0.33251506058283625  1.0000
  H   H143      1.0  0.00957033393168788  -0.15798192448085238  0.30371874529171367  1.0000
  H   H144      1.0  0.05320541338987924  -0.07971812542532374  0.2864990902219077  1.0000
  H   H145      1.0  0.08992445697901559  -0.08332446580834955  0.2818215301443234  1.0000
  H   H146      1.0  0.10577047855842023  -0.1408013312335783  0.28770237810642635  1.0000
  H   H147      1.0  0.0971371377450672  -0.19587396973678983  0.29670159945358554  1.0000
  H   H148      1.0  0.060418094155930885  -0.192267629353764  0.30137915953116984  1.0000
  H   H149      1.0  0.01912656952223077  -0.15459356983491732  0.35024384174345685  1.0000
  H   H150      1.0  0.006135724043091878  -0.10438692261016652  0.2966329980015888  1.0000
  C   C140      1.0  0.0812911161656626  -0.13839710431156108  0.29082075149148257  1.0000
  C   C141      1.0  0.10577047855842017  -0.1408013312335783  0.28770237810642635  1.0000
  C   C142      1.0  0.11560593283278181  -0.10448694338510683  0.28118316831081086  1.0000
  C   C143      1.0  0.14008529522553936  -0.10689117030712403  0.2780647949257546  1.0000
  C   C144      1.0  0.15472920334393533  -0.1456097850776127  0.28146563133631386  1.0000
  C   C145      1.0  0.14489374906957378  -0.1819241729260842  0.28798484113192935  1.0000
  C   C146      1.0  0.12041438667681621  -0.179519946004067  0.2911032145169856  1.0000
  C   C147      1.0  0.09696659731980901  -0.15480461081183874  0.3231599404276676  1.0000
  H   H151      1.0  0.08300842110996064  -0.16519460524690402  0.29436362513654496  1.0000
  H   H152      1.0  0.126643500568152  -0.08693080619137536  0.277143970066739  1.0000
  H   H153      1.0  0.16336254415728838  -0.09053714657440119  0.27246640998915467  1.0000
  H   H154      1.0  0.17920856573669292  -0.1480140119996299  0.27834725795125764  1.0000
  H   H155      1.0  0.17057522492334  -0.20308665050284144  0.2873464792984168  1.0000
  H   H156      1.0  0.1338561813342036  -0.19948031011981562  0.29202403937600113  1.0000
  H   H157      1.0  0.09256465670050344  -0.16180625060096898  0.3408887215882882  1.0000
  H   H158      1.0  0.07957381122136462  -0.11159960337621815  0.2872778778464201  1.0000
  C   C148      1.0  0.9503077794803847  0.007611534975239547  0.2886982501914517  1.0000
  C   C149      1.0  0.972382914951125  0.04272380936270244  0.28061985370330805  1.0000
  C   C150      1.0  0.9992665042658998  0.002803081131205118  0.28246150342133924  1.0000
  C   C151      1.0  0.021341639736640203  0.03791535551866803  0.27438310693319556  1.0000
  C   C152      1.0  0.04822522905141504  -0.002005372712829287  0.2762247566512267  1.0000
  C   C153      1.0  0.9771913687951594  -0.03230919325625774  0.2905398999094828  1.0000
  O   O29       1.0  0.026150093580674612  -0.037117647100292146  0.2843031531393703  1.0000
  O   O30       1.0  0.9944580504218654  0.07783608375016533  0.27254145721516443  1.0000
  S   S8        1.0  0.043416775207380603  0.07302762990613088  0.266304710445052  1.0000
  H   H159      1.0  0.9537423893689807  -0.04598346689544627  0.29578399748157647  1.0000
  H   H160      1.0  0.970665610006827  0.06952131029804537  0.2770769800582456  1.0000
  H   H161      1.0  0.0016707311879170512  -0.03471342017827495  0.2874215265244266  1.0000
  H   H162      1.0  0.019624334792342196  0.06471285645401094  0.27084023328813317  1.0000
  H   H163      1.0  0.05062945597343224  -0.03952187402230936  0.2811847797543141  1.0000
  H   H164      1.0  0.9789086737394574  -0.05910669419160067  0.2940827735545452  1.0000
  H   H165      1.0  0.02786739852497262  -0.06391514803563507  0.2878460267844328  1.0000
  H   H166      1.0  0.06571048790338473  -0.0037226776571272825  0.27399734709047224  1.0000
  C   C154      1.0  0.8609768546308444  -0.1167590620134062  0.3188861119569886  1.0000
  C   C155      1.0  0.885456217023602  -0.11916328893542344  0.31576773857193247  1.0000
  C   C156      1.0  0.8952916712979635  -0.08284890108695193  0.3092485287763169  1.0000
  C   C157      1.0  0.9197710336907211  -0.08525312800896911  0.30613015539126065  1.0000
  C   C158      1.0  0.9344149418091171  -0.12397174277945786  0.30953099180182  1.0000
  C   C159      1.0  0.9245794875347555  -0.16028613062792932  0.3160502015974354  1.0000
  C   C160      1.0  0.900100125141998  -0.1578819037059121  0.3191685749824917  1.0000
  C   C161      1.0  0.8766523357849908  -0.1331665685136839  0.3512253008931737  1.0000
  H   H167      1.0  0.8626941595751424  -0.14355656294874913  0.3224289856020511  1.0000
  H   H168      1.0  0.9063292390333337  -0.0652927638932205  0.30520933053224514  1.0000
  H   H169      1.0  0.9430482826224701  -0.06889910427624632  0.3005317704546608  1.0000
  H   H170      1.0  0.9502609633885217  -0.18144860820468658  0.3154118397639229  1.0000
  H   H171      1.0  0.9135419197993854  -0.17784226782166077  0.32008939984150725  1.0000
  H   H172      1.0  0.8722503951656853  -0.1401682083028141  0.3689540820537943  1.0000
  H   H173      1.0  0.8592595496865464  -0.0899615610780633  0.31534323831192623  1.0000
  S   S9        1.0  0.9432188230477283  -0.1099684632011974  0.27407342948057867  1.0000
  O   O31       1.0  0.960704081899698  -0.11168576814549541  0.27184601991982427  1.0000
  O   O32       1.0  0.9327588886774454  -0.08231230979370548  0.27164426061589353  1.0000
  O   O33       1.0  0.9361934985660415  -0.13590731166439132  0.2787300079060183  1.0000
  C   C162      1.0  0.9344149418091171  -0.12397174277945786  0.30953099180182  1.0000
  C   C163      1.0  0.9588943042018747  -0.12637596970147505  0.3064126184167637  1.0000
  C   C164      1.0  0.9687297584762363  -0.09006158185300356  0.2998934086211482  1.0000
  C   C165      1.0  0.9932091208689939  -0.09246580877502078  0.296775035236092  1.0000
  C   C166      1.0  0.007853028987389874  -0.13118442354550947  0.30017587164665127  1.0000
  C   C167      1.0  0.9980175747130283  -0.16749881139398093  0.30669508144226676  1.0000
  C   C168      1.0  0.9735382123202707  -0.1650945844719637  0.309813454827323  1.0000
  C   C169      1.0  0.9500904229632635  -0.1403792492797355  0.34187018073800496  1.0000
  H   H174      1.0  0.9361322467534151  -0.15076924371480077  0.31307386544688237  1.0000
  H   H175      1.0  0.9797673262116064  -0.07250544465927213  0.29585421037707643  1.0000
  H   H176      1.0  0.016486369800742855  -0.07611178504229796  0.2911766502994921  1.0000
  H   H177      1.0  0.03233239138014751  -0.13358865046752666  0.297057498261595  1.0000
  H   H178      1.0  0.02369905056679448  -0.18866128897073822  0.3060567196087542  1.0000
  H   H179      1.0  0.9869800069776581  -0.18505494858771238  0.31073427968633854  1.0000
  H   H180      1.0  0.945688482343958  -0.14738088906886568  0.35959896189862556  1.0000
  H   H181      1.0  0.9326976368648191  -0.09717424184411495  0.3059881181567576  1.0000
  C   C170      1.0  0.007853028987389874  -0.13118442354550947  0.30017587164665127  1.0000
  C   C171      1.0  0.03233239138014751  -0.13358865046752666  0.297057498261595  1.0000
  C   C172      1.0  0.04216784565450902  -0.09727426261905518  0.2905382884659795  1.0000
  C   C173      1.0  0.06664720804726663  -0.0996784895410724  0.2874199150809233  1.0000
  C   C174      1.0  0.0812911161656626  -0.13839710431156108  0.29082075149148257  1.0000
  C   C175      1.0  0.07145566189130104  -0.17471149216003257  0.29733996128709805  1.0000
  C   C176      1.0  0.04697629949854343  -0.17230726523801534  0.30045833467215427  1.0000
  C   C177      1.0  0.02352851014153635  -0.1475919300457871  0.33251506058283625  1.0000
  H   H182      1.0  0.00957033393168788  -0.15798192448085238  0.30371874529171367  1.0000
  H   H183      1.0  0.05320541338987924  -0.07971812542532374  0.2864990902219077  1.0000
  H   H184      1.0  0.08992445697901565  -0.08332446580834955  0.2818215301443234  1.0000
  H   H185      1.0  0.09713713774506726  -0.19587396973678983  0.29670159945358554  1.0000
  H   H186      1.0  0.060418094155930885  -0.192267629353764  0.30137915953116984  1.0000
  H   H187      1.0  0.01912656952223077  -0.15459356983491732  0.35024384174345685  1.0000
  H   H188      1.0  0.006135724043091878  -0.10438692261016652  0.2966329980015888  1.0000
  S   S10       1.0  0.09009499740427376  -0.12439382473330066  0.2553631891702413  1.0000
  O   O34       1.0  0.10758025625624347  -0.12611112967759866  0.25313577960948686  1.0000
  O   O35       1.0  0.07963506303399091  -0.09673767132580871  0.2529340203055561  1.0000
  O   O36       1.0  0.08306967292258692  -0.15033267319649457  0.26001976759568096  1.0000
  C   C178      1.0  0.0812911161656626  -0.13839710431156108  0.29082075149148257  1.0000
  C   C179      1.0  0.10577047855842023  -0.1408013312335783  0.28770237810642635  1.0000
  C   C180      1.0  0.11560593283278181  -0.10448694338510683  0.28118316831081086  1.0000
  C   C181      1.0  0.14008529522553936  -0.10689117030712403  0.2780647949257546  1.0000
  C   C182      1.0  0.15472920334393545  -0.1456097850776127  0.2814656313363138  1.0000
  C   C183      1.0  0.14489374906957378  -0.1819241729260842  0.28798484113192935  1.0000
  C   C184      1.0  0.12041438667681621  -0.179519946004067  0.2911032145169856  1.0000
  C   C185      1.0  0.09696659731980907  -0.15480461081183874  0.3231599404276676  1.0000
  H   H189      1.0  0.08300842110996064  -0.16519460524690402  0.29436362513654496  1.0000
  H   H190      1.0  0.12664350056815205  -0.08693080619137537  0.277143970066739  1.0000
  H   H191      1.0  0.16336254415728832  -0.09053714657440116  0.27246640998915467  1.0000
  H   H192      1.0  0.17920856573669297  -0.14801401199962994  0.27834725795125764  1.0000
  H   H193      1.0  0.17057522492333996  -0.20308665050284144  0.28734647929841683  1.0000
  H   H194      1.0  0.13385618133420368  -0.19948031011981565  0.29202403937600113  1.0000
  H   H195      1.0  0.0925646567005035  -0.16180625060096898  0.3408887215882882  1.0000
  H   H196      1.0  0.07957381122136462  -0.11159960337621815  0.2872778778464201  1.0000
  C   C186      1.0  0.15472920334393545  -0.1456097850776127  0.2814656313363138  1.0000
  C   C187      1.0  0.17920856573669297  -0.14801401199962994  0.27834725795125764  1.0000
  C   C188      1.0  0.1890440200110546  -0.11169962415115844  0.2718280481556421  1.0000
  C   C189      1.0  0.21352338240381216  -0.11410385107317564  0.2687096747705859  1.0000
  C   C190      1.0  0.22816729052220808  -0.15282246584366435  0.2721105111811452  1.0000
  C   C191      1.0  0.21833183624784658  -0.18913685369213584  0.27862972097676064  1.0000
  C   C192      1.0  0.19385247385508902  -0.18673262677011862  0.28174809436181686  1.0000
  C   C193      1.0  0.17040468449808183  -0.16201729157789038  0.3138048202724989  1.0000
  H   H197      1.0  0.15644650828823345  -0.17240728601295563  0.28500850498137625  1.0000
  H   H198      1.0  0.20008158774642473  -0.094143486957427  0.2677888499115703  1.0000
  H   H199      1.0  0.23680063133556115  -0.09774982734045282  0.26311128983398596  1.0000
  H   H200      1.0  0.25264665291496563  -0.15522669276568155  0.26899213779608894  1.0000
  H   H201      1.0  0.24401331210161278  -0.21029933126889308  0.2779913591432481  1.0000
  H   H202      1.0  0.20729426851247634  -0.2066929908858673  0.2826689192208325  1.0000
  H   H203      1.0  0.16600274387877625  -0.1690189313670206  0.3315336014331195  1.0000
  H   H204      1.0  0.1530118983996374  -0.11881228414226983  0.27792275769125147  1.0000
  C   C194      1.0  0.07270459144417259  -0.004409599634846467  0.2731063832661705  1.0000
  C   C195      1.0  0.09477972691491295  0.030702674752616402  0.26502798677802686  1.0000
  C   C196      1.0  0.12166331622968775  -0.009218053478880906  0.26686963649605805  1.0000
  C   C197      1.0  0.1437384517004281  0.025894220908581973  0.2587912400079144  1.0000
  C   C198      1.0  0.17062204101520295  -0.014026507322915324  0.26063288972594556  1.0000
  C   C199      1.0  0.09958818075894736  -0.04433032786634376  0.2749480329842016  1.0000
  O   O37       1.0  0.14854690554446254  -0.04913878171037821  0.2687112862140892  1.0000
  O   O38       1.0  0.11685486238565335  0.06581494914007925  0.2569495902898833  1.0000
  S   S11       1.0  0.16581358717116854  0.06100649529604484  0.2507128435197708  1.0000
  H   H205      1.0  0.07613920133276861  -0.05800460150553233  0.2801921305562953  1.0000
  H   H206      1.0  0.09306242197061493  0.057500175687959336  0.26148511313296446  1.0000
  H   H207      1.0  0.12406754315170497  -0.04673455478836099  0.2718296595991454  1.0000
  H   H208      1.0  0.1420211467561301  0.05269172184392491  0.255248366362852  1.0000
  H   H209      1.0  0.17302626793722015  -0.051543008632395415  0.26559291282903297  1.0000
  H   H210      1.0  0.10130548570324535  -0.0711278288016867  0.27849090662926407  1.0000
  H   H211      1.0  0.15026421048876054  -0.07593628264572111  0.2722541598591516  1.0000
  H   H212      1.0  0.18810729986717264  -0.01574381226721332  0.2584054801651911  1.0000
  C   C200      1.0  0.9344149418091171  -0.12397174277945786  0.30953099180182  1.0000
  C   C201      1.0  0.9588943042018747  -0.12637596970147505  0.3064126184167637  1.0000
  C   C202      1.0  0.9687297584762363  -0.09006158185300356  0.2998934086211482  1.0000
  C   C203      1.0  0.9932091208689939  -0.09246580877502078  0.296775035236092  1.0000
  C   C204      1.0  0.007853028987389874  -0.13118442354550947  0.30017587164665127  1.0000
  C   C205      1.0  0.9980175747130283  -0.16749881139398093  0.30669508144226676  1.0000
  C   C206      1.0  0.9735382123202707  -0.1650945844719637  0.309813454827323  1.0000
  C   C207      1.0  0.9500904229632636  -0.1403792492797355  0.34187018073800496  1.0000
  H   H213      1.0  0.9361322467534151  -0.15076924371480077  0.31307386544688237  1.0000
  H   H214      1.0  0.9797673262116066  -0.07250544465927214  0.29585421037707643  1.0000
  H   H215      1.0  0.016486369800742855  -0.07611178504229796  0.2911766502994921  1.0000
  H   H216      1.0  0.02369905056679448  -0.18866128897073822  0.3060567196087542  1.0000
  H   H217      1.0  0.9869800069776581  -0.18505494858771238  0.31073427968633854  1.0000
  H   H218      1.0  0.945688482343958  -0.14738088906886568  0.35959896189862556  1.0000
  H   H219      1.0  0.9326976368648191  -0.09717424184411495  0.3059881181567576  1.0000
  S   S12       1.0  0.01665691022600103  -0.11718114396724902  0.26471830932541  1.0000
  O   O39       1.0  0.03414216907797074  -0.11889844891154704  0.26249089976465556  1.0000
  O   O40       1.0  0.006196975855718186  -0.0895249905597571  0.2622891404607248  1.0000
  O   O41       1.0  0.009631585744314185  -0.14311999243044293  0.26937488775084967  1.0000
  C   C208      1.0  0.007853028987389874  -0.13118442354550947  0.30017587164665127  1.0000
  C   C209      1.0  0.03233239138014751  -0.13358865046752666  0.297057498261595  1.0000
  C   C210      1.0  0.042167845654509074  -0.0972742626190552  0.2905382884659795  1.0000
  C   C211      1.0  0.06664720804726663  -0.0996784895410724  0.2874199150809233  1.0000
  C   C212      1.0  0.0812911161656626  -0.13839710431156108  0.29082075149148257  1.0000
  C   C213      1.0  0.07145566189130104  -0.17471149216003257  0.29733996128709805  1.0000
  C   C214      1.0  0.04697629949854348  -0.17230726523801537  0.30045833467215427  1.0000
  C   C215      1.0  0.02352851014153635  -0.1475919300457871  0.33251506058283625  1.0000
  H   H220      1.0  0.00957033393168788  -0.15798192448085238  0.30371874529171367  1.0000
  H   H221      1.0  0.05320541338987924  -0.07971812542532374  0.2864990902219077  1.0000
  H   H222      1.0  0.08992445697901565  -0.08332446580834955  0.2818215301443234  1.0000
  H   H223      1.0  0.10577047855842023  -0.1408013312335783  0.28770237810642635  1.0000
  H   H224      1.0  0.09713713774506726  -0.19587396973678983  0.29670159945358554  1.0000
  H   H225      1.0  0.060418094155930885  -0.192267629353764  0.30137915953116984  1.0000
  H   H226      1.0  0.01912656952223077  -0.15459356983491732  0.35024384174345685  1.0000
  H   H227      1.0  0.006135724043091878  -0.10438692261016652  0.2966329980015888  1.0000
  C   C216      1.0  0.0812911161656626  -0.13839710431156108  0.29082075149148257  1.0000
  C   C217      1.0  0.10577047855842023  -0.1408013312335783  0.28770237810642635  1.0000
  C   C218      1.0  0.11560593283278181  -0.10448694338510683  0.28118316831081086  1.0000
  C   C219      1.0  0.14008529522553936  -0.10689117030712403  0.2780647949257546  1.0000
  C   C220      1.0  0.15472920334393545  -0.1456097850776127  0.2814656313363138  1.0000
  C   C221      1.0  0.14489374906957378  -0.1819241729260842  0.28798484113192935  1.0000
  C   C222      1.0  0.12041438667681621  -0.179519946004067  0.2911032145169856  1.0000
  C   C223      1.0  0.09696659731980907  -0.15480461081183874  0.3231599404276676  1.0000
  H   H228      1.0  0.08300842110996064  -0.16519460524690402  0.29436362513654496  1.0000
  H   H229      1.0  0.126643500568152  -0.08693080619137536  0.277143970066739  1.0000
  H   H230      1.0  0.16336254415728838  -0.09053714657440119  0.27246640998915467  1.0000
  H   H231      1.0  0.17057522492334  -0.20308665050284144  0.2873464792984168  1.0000
  H   H232      1.0  0.1338561813342036  -0.19948031011981562  0.29202403937600113  1.0000
  H   H233      1.0  0.0925646567005035  -0.16180625060096898  0.3408887215882882  1.0000
  H   H234      1.0  0.07957381122136462  -0.11159960337621815  0.2872778778464201  1.0000
  S   S13       1.0  0.16353308458254656  -0.13160650549935227  0.2460080690150726  1.0000
  O   O42       1.0  0.18101834343451628  -0.13332381044365027  0.24378065945431812  1.0000
  O   O43       1.0  0.1530731502122637  -0.10395035209186033  0.24357890015038738  1.0000
  O   O44       1.0  0.15650776010085973  -0.15754535396254618  0.2506646474405122  1.0000
  C   C224      1.0  0.15472920334393545  -0.1456097850776127  0.2814656313363138  1.0000
  C   C225      1.0  0.17920856573669297  -0.14801401199962994  0.27834725795125764  1.0000
  C   C226      1.0  0.1890440200110546  -0.11169962415115844  0.2718280481556421  1.0000
  C   C227      1.0  0.21352338240381216  -0.11410385107317564  0.2687096747705859  1.0000
  C   C228      1.0  0.22816729052220813  -0.15282246584366435  0.27211051118114515  1.0000
  C   C229      1.0  0.21833183624784658  -0.18913685369213584  0.27862972097676064  1.0000
  C   C230      1.0  0.19385247385508902  -0.18673262677011862  0.28174809436181686  1.0000
  C   C231      1.0  0.17040468449808183  -0.16201729157789038  0.3138048202724989  1.0000
  H   H235      1.0  0.15644650828823345  -0.17240728601295563  0.28500850498137625  1.0000
  H   H236      1.0  0.2000815877464248  -0.094143486957427  0.2677888499115703  1.0000
  H   H237      1.0  0.23680063133556115  -0.09774982734045282  0.26311128983398596  1.0000
  H   H238      1.0  0.25264665291496574  -0.15522669276568157  0.26899213779608894  1.0000
  H   H239      1.0  0.24401331210161278  -0.21029933126889308  0.2779913591432481  1.0000
  H   H240      1.0  0.2072942685124764  -0.2066929908858673  0.2826689192208325  1.0000
  H   H241      1.0  0.16600274387877625  -0.1690189313670206  0.3315336014331195  1.0000
  H   H242      1.0  0.1530118983996374  -0.11881228414226983  0.27792275769125147  1.0000
  C   C232      1.0  0.22816729052220813  -0.15282246584366435  0.27211051118114515  1.0000
  C   C233      1.0  0.2526466529149657  -0.15522669276568157  0.26899213779608894  1.0000
  C   C234      1.0  0.26248210718932735  -0.11891230491721005  0.2624729280004734  1.0000
  C   C235      1.0  0.28696146958208496  -0.12131653183922729  0.25935455461541723  1.0000
  C   C236      1.0  0.3016053777004809  -0.16003514660971596  0.26275539102597645  1.0000
  C   C237      1.0  0.29176992342611935  -0.19634953445818745  0.26927460082159194  1.0000
  C   C238      1.0  0.2672905610333618  -0.19394530753617023  0.27239297420664815  1.0000
  C   C239      1.0  0.2438427716763546  -0.16922997234394202  0.3044497001173302  1.0000
  H   H243      1.0  0.22988459546650616  -0.17961996677900724  0.27565338482620755  1.0000
  H   H244      1.0  0.27351967492469753  -0.10135616772347862  0.2584337297564016  1.0000
  H   H245      1.0  0.31023871851383394  -0.10496250810650445  0.2537561696788173  1.0000
  H   H246      1.0  0.32608474009323846  -0.16243937353173318  0.2596370176409202  1.0000
  H   H247      1.0  0.3174513992798855  -0.21751201203494475  0.2686362389880794  1.0000
  H   H248      1.0  0.28073235569074917  -0.2139056716519189  0.2733137990656638  1.0000
  H   H249      1.0  0.239440831057049  -0.17623161213307223  0.3221784812779508  1.0000
  H   H250      1.0  0.22644998557791016  -0.12602496490832144  0.26856763753608276  1.0000
  C   C240      1.0  0.1951014034079605  -0.016430734244932525  0.25751451634088934  1.0000
  C   C241      1.0  0.21717653887870084  0.01868154014253034  0.24943611985274575  1.0000
  C   C242      1.0  0.24406012819347567  -0.021239188088966944  0.25127776957077685  1.0000
  C   C243      1.0  0.2661352636642161  0.013873086298495948  0.24319937308263326  1.0000
  C   C244      1.0  0.29301885297899083  -0.02604764193300137  0.2450410228006644  1.0000
  C   C245      1.0  0.22198499272273525  -0.0563514624764298  0.2593561660589204  1.0000
  O   O45       1.0  0.27094371750825047  -0.06115991632046424  0.253119419288808  1.0000
  O   O46       1.0  0.23925167434944125  0.053793814529993204  0.24135772336460215  1.0000
  S   S14       1.0  0.28821039913495644  0.04898536068595881  0.23512097659448963  1.0000
  H   H251      1.0  0.1985360132965565  -0.07002573611561837  0.2646002636310142  1.0000
  H   H252      1.0  0.21545923393440283  0.04547904107787328  0.2458932462076833  1.0000
  H   H253      1.0  0.24646435511549292  -0.05875568939844704  0.25623779267386426  1.0000
  H   H254      1.0  0.26441795871991813  0.04067058723383888  0.2396564994375708  1.0000
  H   H255      1.0  0.2954230799010081  -0.06356414324248146  0.2500010459037518  1.0000
  H   H256      1.0  0.22370229766703326  -0.08314896341177273  0.2628990397039829  1.0000
  H   H257      1.0  0.27266102245254853  -0.08795741725580716  0.2566622929338704  1.0000
  H   H258      1.0  0.31050411183096055  -0.027764946877299367  0.24281361323990994  1.0000
  C   C246      1.0  0.007853028987389874  -0.13118442354550947  0.30017587164665127  1.0000
  C   C247      1.0  0.03233239138014745  -0.13358865046752666  0.297057498261595  1.0000
  C   C248      1.0  0.042167845654509074  -0.0972742626190552  0.2905382884659795  1.0000
  C   C249      1.0  0.06664720804726663  -0.0996784895410724  0.2874199150809233  1.0000
  C   C250      1.0  0.0812911161656626  -0.13839710431156108  0.29082075149148257  1.0000
  C   C251      1.0  0.07145566189130104  -0.17471149216003257  0.29733996128709805  1.0000
  C   C252      1.0  0.04697629949854348  -0.17230726523801537  0.30045833467215427  1.0000
  C   C253      1.0  0.023528510141536292  -0.1475919300457871  0.33251506058283625  1.0000
  H   H259      1.0  0.00957033393168788  -0.15798192448085238  0.30371874529171367  1.0000
  H   H260      1.0  0.05320541338987924  -0.07971812542532374  0.2864990902219077  1.0000
  H   H261      1.0  0.08992445697901565  -0.08332446580834955  0.2818215301443234  1.0000
  H   H262      1.0  0.09713713774506726  -0.19587396973678983  0.29670159945358554  1.0000
  H   H263      1.0  0.060418094155930885  -0.192267629353764  0.30137915953116984  1.0000
  H   H264      1.0  0.01912656952223071  -0.15459356983491732  0.35024384174345685  1.0000
  H   H265      1.0  0.006135724043091878  -0.10438692261016652  0.2966329980015888  1.0000
  S   S15       1.0  0.09009499740427376  -0.12439382473330066  0.2553631891702413  1.0000
  O   O47       1.0  0.10758025625624347  -0.12611112967759866  0.25313577960948686  1.0000
  O   O48       1.0  0.07963506303399091  -0.09673767132580871  0.2529340203055561  1.0000
  O   O49       1.0  0.08306967292258692  -0.15033267319649457  0.26001976759568096  1.0000
  C   C254      1.0  0.0812911161656626  -0.13839710431156108  0.29082075149148257  1.0000
  C   C255      1.0  0.10577047855842017  -0.1408013312335783  0.28770237810642635  1.0000
  C   C256      1.0  0.11560593283278181  -0.10448694338510683  0.28118316831081086  1.0000
  C   C257      1.0  0.14008529522553936  -0.10689117030712403  0.2780647949257546  1.0000
  C   C258      1.0  0.15472920334393545  -0.1456097850776127  0.2814656313363138  1.0000
  C   C259      1.0  0.14489374906957378  -0.1819241729260842  0.28798484113192935  1.0000
  C   C260      1.0  0.12041438667681621  -0.179519946004067  0.2911032145169856  1.0000
  C   C261      1.0  0.09696659731980901  -0.15480461081183874  0.3231599404276676  1.0000
  H   H266      1.0  0.08300842110996064  -0.16519460524690402  0.29436362513654496  1.0000
  H   H267      1.0  0.126643500568152  -0.08693080619137536  0.277143970066739  1.0000
  H   H268      1.0  0.16336254415728838  -0.09053714657440119  0.27246640998915467  1.0000
  H   H269      1.0  0.17920856573669297  -0.14801401199962994  0.27834725795125764  1.0000
  H   H270      1.0  0.17057522492334  -0.20308665050284144  0.2873464792984168  1.0000
  H   H271      1.0  0.1338561813342036  -0.19948031011981562  0.29202403937600113  1.0000
  H   H272      1.0  0.09256465670050344  -0.16180625060096898  0.3408887215882882  1.0000
  H   H273      1.0  0.07957381122136462  -0.11159960337621815  0.2872778778464201  1.0000
  C   C262      1.0  0.15472920334393545  -0.1456097850776127  0.2814656313363138  1.0000
  C   C263      1.0  0.17920856573669297  -0.14801401199962994  0.27834725795125764  1.0000
  C   C264      1.0  0.18904402001105453  -0.11169962415115844  0.27182804815564215  1.0000
  C   C265      1.0  0.21352338240381216  -0.11410385107317564  0.2687096747705859  1.0000
  C   C266      1.0  0.22816729052220813  -0.15282246584366435  0.27211051118114515  1.0000
  C   C267      1.0  0.21833183624784658  -0.18913685369213584  0.27862972097676064  1.0000
  C   C268      1.0  0.19385247385508897  -0.18673262677011862  0.2817480943618169  1.0000
  C   C269      1.0  0.17040468449808183  -0.16201729157789038  0.3138048202724989  1.0000
  H   H274      1.0  0.15644650828823345  -0.17240728601295563  0.28500850498137625  1.0000
  H   H275      1.0  0.20008158774642473  -0.094143486957427  0.2677888499115703  1.0000
  H   H276      1.0  0.23680063133556115  -0.09774982734045282  0.26311128983398596  1.0000
  H   H277      1.0  0.24401331210161278  -0.21029933126889308  0.2779913591432481  1.0000
  H   H278      1.0  0.20729426851247634  -0.2066929908858673  0.2826689192208325  1.0000
  H   H279      1.0  0.16600274387877625  -0.1690189313670206  0.3315336014331195  1.0000
  H   H280      1.0  0.1530118983996374  -0.11881228414226983  0.27792275769125147  1.0000
  S   S16       1.0  0.23697117176081933  -0.1388191862654039  0.23665294885990387  1.0000
  O   O50       1.0  0.254456430612789  -0.14053649120970188  0.23442553929914942  1.0000
  O   O51       1.0  0.22651123739053647  -0.11116303285791199  0.2342237799952187  1.0000
  O   O52       1.0  0.22994584727913248  -0.1647580347285978  0.24130952728534352  1.0000
  C   C270      1.0  0.22816729052220813  -0.15282246584366435  0.27211051118114515  1.0000
  C   C271      1.0  0.25264665291496574  -0.15522669276568157  0.26899213779608894  1.0000
  C   C272      1.0  0.2624821071893273  -0.11891230491721005  0.2624729280004734  1.0000
  C   C273      1.0  0.28696146958208496  -0.12131653183922729  0.25935455461541723  1.0000
  C   C274      1.0  0.3016053777004809  -0.16003514660971596  0.26275539102597645  1.0000
  C   C275      1.0  0.29176992342611935  -0.19634953445818745  0.26927460082159194  1.0000
  C   C276      1.0  0.26729056103336174  -0.19394530753617023  0.27239297420664815  1.0000
  C   C277      1.0  0.24384277167635465  -0.16922997234394202  0.3044497001173302  1.0000
  H   H281      1.0  0.22988459546650616  -0.17961996677900724  0.27565338482620755  1.0000
  H   H282      1.0  0.27351967492469753  -0.10135616772347862  0.2584337297564016  1.0000
  H   H283      1.0  0.3102387185138338  -0.10496250810650445  0.2537561696788173  1.0000
  H   H284      1.0  0.32608474009323846  -0.16243937353173318  0.2596370176409202  1.0000
  H   H285      1.0  0.3174513992798854  -0.2175120120349447  0.2686362389880794  1.0000
  H   H286      1.0  0.28073235569074917  -0.2139056716519189  0.2733137990656638  1.0000
  H   H287      1.0  0.23944083105704905  -0.17623161213307223  0.3221784812779508  1.0000
  H   H288      1.0  0.22644998557791016  -0.12602496490832144  0.26856763753608276  1.0000
  C   C278      1.0  0.3016053777004809  -0.16003514660971596  0.26275539102597645  1.0000
  C   C279      1.0  0.32608474009323846  -0.16243937353173318  0.2596370176409202  1.0000
  C   C280      1.0  0.33592019436760007  -0.1261249856832617  0.25311780784530474  1.0000
  C   C281      1.0  0.3603995567603577  -0.12852921260527891  0.24999943446024847  1.0000
  C   C282      1.0  0.3750434648787536  -0.16724782737576757  0.25340027087080774  1.0000
  C   C283      1.0  0.36520801060439206  -0.2035622152242391  0.2599194806664233  1.0000
  C   C284      1.0  0.34072864821163446  -0.20115798830222187  0.2630378540514795  1.0000
  C   C285      1.0  0.3172808588546273  -0.17644265310999363  0.2950945799621615  1.0000
  H   H289      1.0  0.30332268264477885  -0.1868326475450589  0.2662982646710389  1.0000
  H   H290      1.0  0.34695776210297036  -0.10856884848953026  0.24907860960123293  1.0000
  H   H291      1.0  0.3836768056921066  -0.11217518887255606  0.24440104952364855  1.0000
  H   H292      1.0  0.3995228272715112  -0.1696520542977848  0.2502818974857515  1.0000
  H   H293      1.0  0.3908894864581582  -0.22472469280099636  0.2592811188329107  1.0000
  H   H294      1.0  0.35417044286902194  -0.2211183524179705  0.263958678910495  1.0000
  H   H295      1.0  0.3128789182353217  -0.18344429289912384  0.3128233611227821  1.0000
  H   H296      1.0  0.2998880727561829  -0.13323764567437307  0.25921251738091405  1.0000
  In  In1       1.0  0.9570077290751209  0.029020074949357304  0.4482090587683589  1.0000
  In  In2       1.0  0.9796811928873685  0.005287788761455711  0.4949853856224836  1.0000
  In  In3       1.0  0.9407960011999263  0.06303027066772862  0.49232157085176  1.0000
  In  In4       1.0  0.9634694650121739  0.03929798447982696  0.5390978977058848  1.0000
